23
 energy: -34.591828379782 gnorm: 0.000471936219 xtb: 6.6.1 (unknown)
C           -0.32395042410768       -0.11905675466462        0.76993604416399
C            1.09678790608484       -0.48463534619818        0.39453056040213
O            1.76064723637240       -1.29970387473833        1.00186569607115
N            1.57770727086761        0.17603258894580       -0.67734000697072
H           -0.99238742289043       -0.32221902784570       -0.06413109282286
H           -0.63374319134211       -0.70459270214995        1.63052077408779
H           -0.38156850153256        0.93948150012552        1.01524341504394
H            2.52008009680369       -0.02356265116947       -0.99740690877964
H            1.01744500600561        0.83580300798260       -1.18579655952396
C            5.12524213615155       -1.07814957170201        1.11297121861827
C            5.10507139272242       -0.14781006460817       -0.09407732367672
O            4.31845826696818       -0.68712303032041       -1.14971670470705
C            4.21450314464663       -2.10673728799628       -1.08799726344421
C            5.48942851325749       -2.73036118416328       -0.53483557196110
O            5.75111301634509       -2.30865875831241        0.79164067836439
H            4.09648735405477       -1.24830261372892        1.45896965985779
H            5.71035196981051       -0.64008622037027        1.92404571009836
H            6.13096502971149        0.01449939164296       -0.45412256342470
H            4.66764356765486        0.81789033265480        0.17221055714590
H            3.36158366863107       -2.38698985514728       -0.45606259867941
H            4.03549307895764       -2.44419321592073       -2.11148278250854
H            5.39922582967330       -3.81993736793611       -0.51525440952520
H            6.33931505515326       -2.45988729438705       -1.18071052783213
