54
 energy: -79.293490814089 gnorm: 0.000887109733 xtb: 6.6.1 (unknown)
C           -1.15111351958916       -0.21682808917642       -0.25989333539086
C           -0.22846244284643       -0.27297863868921       -1.46336867785825
O           -0.12768765481164        0.64222009441212       -2.25640072760284
N            0.46339853855282       -1.42523922014972       -1.57810787092291
C            1.40106634672862       -1.65591083314294       -2.65237311466869
H           -2.17741477812490       -0.12519385361618       -0.60935326094107
H           -1.05280312473692       -1.09829121598237        0.36616222984199
H           -0.91919854520910        0.67575077658830        0.31670315605149
H            0.32973930904906       -2.16061440570885       -0.89853033402826
H            2.43023001394629       -1.50045410243877       -2.31371521229068
H            1.30377938099948       -2.67409022134530       -3.02678623789898
H            1.18615359800752       -0.93784104815733       -3.44315398316246
C            1.39932138389729       -5.19566444832986        1.33440412107505
C            0.73062074458685       -3.82068768364984        1.54923441944430
O           -0.22109051328396       -3.48169581605857        0.56766900149666
C           -1.29837482819853       -4.38911430833081        0.44242217797006
C           -2.28937441412758       -3.82024750016888       -0.56981117700332
O           -3.13363144663044       -4.86731552085646       -0.98277096779823
C           -4.03132929948292       -4.49361042841757       -2.00777701682748
C           -4.72764159615901       -5.74668754907884       -2.55749136773937
O           -4.11900733708105       -6.31046462926730       -3.69326259306704
C           -3.03837449554382       -7.18689853772916       -3.47239300040898
C           -1.69797361509111       -6.48046547446066       -3.23746494940745
O           -0.67615764251193       -7.45478355293240       -3.31989276111444
C            0.55667239366387       -7.05950141005196       -2.76839625367528
C            1.33631127399540       -6.04860510629276       -3.64114185065399
O            1.85922688643894       -4.96439946875797       -2.90676133386305
C            2.92203274823533       -5.27108880564075       -2.02531695775521
C            2.64437537657213       -4.70954570591728       -0.63083703475236
O            1.65917416049612       -5.50860562443814       -0.00926631953533
H            0.73935801692532       -5.99357973005879        1.68389276676635
H            2.32555410884158       -5.22058027277036        1.92870640292084
H            1.47352017538928       -3.02065872619777        1.50073926892960
H            0.27280401680158       -3.81608637374195        2.54970176582208
H           -0.94678568031253       -5.35853656277417        0.07041138121200
H           -1.78416570011975       -4.54143862275071        1.41587593690313
H           -2.87458465159131       -3.00094517729449       -0.12792991643648
H           -1.72883050366326       -3.41725094110962       -1.42691254471313
H           -3.49580574754273       -3.98919281128857       -2.82351223215649
H           -4.78032508598675       -3.79751307823553       -1.60267533421787
H           -5.73352918034593       -5.47407887363471       -2.88778380271905
H           -4.79960934225136       -6.48249785997514       -1.74611305982890
H           -3.24844049458692       -7.85769076523138       -2.62923342983497
H           -2.95355168943880       -7.78438027188160       -4.38393191624212
H           -1.56923396887893       -5.70189835349140       -4.00312356703194
H           -1.68504662585323       -6.01215103788119       -2.24723602707755
H            1.11991170357695       -7.98884657686485       -2.65249660410358
H            0.41154156598055       -6.60716623757499       -1.77638058608890
H            0.65339497159408       -5.59286466135696       -4.36091945947284
H            2.13512464490320       -6.55337492428282       -4.19994045142144
H            3.84104984507714       -4.80852093434063       -2.41117240009708
H            3.07022570823184       -6.35135926332033       -1.94997071536795
H            2.30219296853947       -3.67324121873235       -0.72866193408888
H            3.57106404287324       -4.72939439744939       -0.03676230889152
