26
 energy: -39.064563988223 gnorm: 0.000946258670 xtb: 6.6.1 (unknown)
C           -1.87451008180704       -0.18557211803756        0.14647423726555
C           -0.50591325861863        0.46228018410570        0.23349797997721
O           -0.32041093338034        1.59766905467288        0.62338740260028
N            0.49443865256754       -0.34564517783561       -0.17178024240161
C            1.86675562961530        0.10479304682008       -0.17726915943368
H           -2.13977212653108       -0.33153585088983       -0.89838887159468
H           -1.86555095756204       -1.15456045354119        0.63891409935420
H           -2.61114739749214        0.45981328295536        0.61544421177025
H            0.28652840723344       -1.27834412874947       -0.49796884509351
H            2.50852281261729       -0.69367533236337       -0.53932658709390
H            1.97625986401220        0.98138635047946       -0.82031070194985
H            2.17374804063805        0.39224414214296        0.83110688553581
C           -1.59869597733110       -7.65161980130541       -2.75587914559140
C           -2.29255854732152       -6.46248019378163       -2.58544706082927
C           -1.63718912229221       -5.34546473178607       -2.10791496192417
C           -0.27685437052762       -5.41084788663489       -1.79664569341086
C            0.41392794168327       -6.61092982931158       -1.97120029035965
C           -0.24774149257681       -7.72513496081940       -2.44910033503968
C            0.41501171892534       -4.22742448940150       -1.29204731557418
O           -0.09319573949422       -3.14713117523503       -1.10402885579504
H           -2.11210751830997       -8.52518901962271       -3.12923663330856
H           -3.34369758263155       -6.41164364135082       -2.82621735238722
H           -2.15539773097310       -4.40870639102521       -1.96697237362113
H            1.46613423748746       -6.66129466926784       -1.73030357307782
H            0.28590648761630       -8.65394038509423       -2.58419025743560
H            1.48960904445317       -4.38924582512307       -1.07769656058149
