19
 energy: -27.367927100972 gnorm: 0.000459682854 xtb: 6.6.1 (unknown)
C           -0.39338325805603       -0.15889731772346        0.61751943105798
C            1.06321711013360       -0.50675527307872        0.38339164494841
O            1.76803231911625       -1.00815201435328        1.23859719833599
N            1.50645361933862       -0.22895613072618       -0.85453529750905
H           -1.01951427827653       -0.66383443582828       -0.11468677671732
H           -0.68415427047755       -0.46874119816081        1.61679587454202
H           -0.53573247668499        0.91527657070507        0.51969610109581
H            2.48320407083355       -0.37503571045112       -1.09979710564962
H            0.91413405377726        0.22439523251739       -1.52670901305988
C            4.31820706548229       -2.37999791499560        0.13785232080649
C            4.91431782438705       -1.17634536472720       -0.51822712128885
O            4.31712050265420       -0.53326181246332       -1.35620739956478
C            6.29108091692755       -0.79398173992547       -0.05033729503788
H            3.86540210742063       -3.03023046717544       -0.60789046382949
H            5.04114318552809       -2.93037531090621        0.72993628444606
H            3.50415604627865       -2.02897142956720        0.78255093704125
H            6.62341233127448        0.11932653083524       -0.53669441081468
H            6.98735786929912       -1.60038273891204       -0.27361273043937
H            6.27464526104356       -0.65247947506681        1.02805782164070
