25
 energy: -33.689527859619 gnorm: 0.000619345731 xtb: 6.6.1 (unknown)
C           -1.87352232247115       -0.18724843571639        0.14657254661349
C           -0.50509919619503        0.46236871883869        0.23236133470744
O           -0.32261487017350        1.59931485743804        0.61964416467692
N            0.49627623382749       -0.34447117218089       -0.17049151439411
C            1.86827411165299        0.10694056163037       -0.17591054089749
H           -2.13900399966702       -0.33510213165696       -0.89794933500322
H           -1.86290116420223       -1.15519898134405        0.64095150464735
H           -2.61065528273110        0.45806814095517        0.61485303687970
H            0.29284905192858       -1.27825554130614       -0.49238264081265
H            2.50924740984971       -0.69245702455718       -0.53677166164456
H            1.97741549866495        0.98260422070935       -0.82020235682685
H            2.17490238061952        0.39592324769488        0.83210031386213
C           -1.40794931578012       -6.28917369142800       -2.55856349447284
C           -1.36284987370986       -4.80571910930365       -2.22519304556770
C           -0.18918603988879       -4.31597900872936       -1.40701385360293
O           -0.09714669417110       -3.14638825342016       -1.10950891752300
C            0.84101824315592       -5.32294673288068       -0.98489537323594
H           -2.29813676582125       -6.50043566773515       -3.14651163664107
H           -0.54208590114858       -6.59043911206924       -3.14267001855686
H           -1.45004475727534       -6.89648293341176       -1.65797981625621
H           -1.36864596090665       -4.21619913615533       -3.14693014120320
H           -2.26652029363842       -4.51867361163467       -1.67914694576780
H            1.62115271059290       -4.83504415204720       -0.40614552198611
H            1.27897412234628       -5.79447460201864       -1.86150826164823
H            0.37445267514180       -6.09963044967107       -0.38350782534629
