21
 energy: -28.380928742124 gnorm: 0.000746187190 xtb: 6.6.1 (unknown)
C           -1.89717261211729       -0.05399458059936        0.23554759757127
C           -0.48897450191370        0.51291853041714        0.25377592160024
O           -0.22358607324291        1.64150122407794        0.61242260242849
N            0.44728337732404       -0.36297972444454       -0.16495990383827
C            1.84288887134862        0.00778752489675       -0.21781522402110
H           -2.15560090940084       -0.37485708859980       -0.77115181019231
H           -1.95836299367799       -0.90918939523148        0.90533895409475
H           -2.59590022941839        0.71042518509197        0.56286197375759
H            0.18069636086495       -1.28874556538242       -0.46639420271682
H            2.43198007938046       -0.84327593879946       -0.54755356390171
H            1.98938372688614        0.84289746747328       -0.90727224917116
H            2.18385446776375        0.32762566993134        0.76920472443197
C            0.90790899235616       -3.89938286296847       -1.67784362702995
O           -0.15283613622827       -3.15395323688863       -1.13207603472252
C           -1.36056164057292       -3.87405488526763       -1.08357908210811
H            1.78359986444456       -3.25397379927971       -1.67352563721411
H            0.68637731356637       -4.20575052467736       -2.70661136781890
H            1.11052811666453       -4.79449298217062       -1.07824877470396
H           -1.25947116469054       -4.77137523600582       -0.46218380104005
H           -2.10587798726489       -3.21247848261792       -0.64782011565899
H           -1.68045692207214       -4.17415129895478       -2.08811637974626
