16
 energy: -24.189404078559 gnorm: 0.000218392769 xtb: 6.6.1 (unknown)
C           -0.42299027681536       -0.25639352340021        0.46746577773275
C            1.04987813934487       -0.55725790765149        0.27591189716340
O            1.63269148727330       -1.43454033177765        0.88255907728605
N            1.66528931603833        0.23127577363159       -0.62275157549127
H           -0.95097874075002       -0.36810318418361       -0.47704610748888
H           -0.84118135778633       -0.94323421644084        1.19708227723516
H           -0.54920378597562        0.76473122053020        0.82087999696558
H            2.65223172777881        0.10049758337487       -0.82521866594443
H            1.16639446596577        0.94789257571285       -1.11802291746720
C            4.75242799947282       -1.91894616326615        0.44096970388316
C            5.18473244641457       -1.01843148441696       -0.65753755469231
O            4.50279549716370       -0.19101482015746       -1.20530329805485
H            3.68822993502473       -1.81352932283492        0.65472283285029
H            5.33059481168585       -1.67898735147917        1.33291268197471
H            4.98401734604139       -2.94893971505788        0.17589733563200
H            6.24117098912111       -1.15061913258596       -0.96582146158128
