18
 energy: -25.225526011002 gnorm: 0.000664586800 xtb: 6.6.1 (unknown)
C           -0.43120973401641       -0.43092728621494        0.36755216708757
C            1.01505097062584       -0.74332464890491        0.03821011944898
O            1.49616102211235       -1.85331860839745        0.13774898715245
N            1.73064031333833        0.31944284995886       -0.37616073619661
H           -0.92369032982540        0.01144921100262       -0.49545018989760
H           -0.94468455648177       -1.34579531543566        0.64676997889081
H           -0.47668850202092        0.27280312701589        1.19593439925633
H            2.71030210915387        0.20487439064905       -0.62072276350460
H            1.31834421497531        1.23172206064636       -0.44820197569883
C            4.76459334768648       -2.20588431941187        0.21759708739868
C            5.20632644255233       -0.77744847990060       -0.06248490183098
O            4.48471141605556       -0.19049411484918       -1.13310654317842
H            5.24741252696414       -2.57427736218088        1.11788876612718
H            3.68474436771368       -2.24572748396163        0.35084278872421
H            5.03691063254483       -2.85723324444410       -0.61212839756043
H            6.28225299522940       -0.74383299916333       -0.28829572935370
H            5.01619793094584       -0.13746498532170        0.80244260456420
H            4.44742483245806       -0.83266279109000       -1.85133566142776
