26
 energy: -39.080170061297 gnorm: 0.000220071137 xtb: 6.6.1 (unknown)
C           -0.94105108045344       -0.13374945771291        0.29419619031365
C            0.47139048808765       -0.68427079560455        0.33926362198302
O            0.78007387873535       -1.66937938617475        0.98077345615716
N            1.35966541530182        0.01120265598416       -0.39098383827665
H           -1.29723317318963       -0.10694273721657       -0.73325989327279
H           -1.59623119247648       -0.76509938335304        0.88642682693891
H           -0.95595688389682        0.87692998094085        0.69660423144572
H            2.33555990340741       -0.27604550987280       -0.42164015377137
H            1.08514740849256        0.82431485984697       -0.91172469893366
C            3.85658568532503       -2.65480535346017        0.93548187439375
C            4.65466858369914       -1.69018740899930        0.11034311170614
O            4.13514356653768       -0.75734958610778       -0.47564360837952
C            6.12181199927941       -1.90292330953872        0.02691401291884
C            6.76220267383298       -3.01979254234352        0.56266229174755
C            8.13297899433933       -3.15667972266661        0.44659838183214
C            8.88285932729595       -2.18589610174701       -0.19855715771480
C            8.25676685627300       -1.07210244680215       -0.73480404899522
C            6.88752093011688       -0.93403825359964       -0.62430034187877
H            4.25825352192388       -2.70464785934336        1.94528001287815
H            3.91484285104832       -3.64820196518749        0.49412184865923
H            2.81090194853964       -2.34880755018343        0.97662710207811
H            6.19654130713045       -3.78839566943420        1.06541618877137
H            8.62151020183812       -4.02601775568561        0.86176694972020
H            9.95360277988380       -2.29892031179275       -0.28366211054989
H            8.83767920509406       -0.31395858754247       -1.23878440283078
H            6.38156480383397       -0.07373580239970       -1.03691584693489
