25
 energy: -36.940916827498 gnorm: 0.000942912638 xtb: 6.6.1 (unknown)
C           -0.77354396899762       -1.11769432351324       -0.21425622978074
C            0.70148646261301       -1.17580767215103        0.12852683314113
O            1.22532871898119       -2.12444712906916        0.66968814539450
N            1.39264602737203       -0.07034538254269       -0.22092551396408
H           -0.89951933595903       -1.02998243152720       -1.29106395273055
H           -1.25982244796072       -2.02516291821057        0.12948900323308
H           -1.23460616152445       -0.25727283834529        0.26459894771938
H            2.38776928773588       -0.02832421269845       -0.04358214766548
H            0.94937353670832        0.69908012207460       -0.68760393442178
C            4.93327353487172        1.49110515601189        0.00141822246662
O            4.35239430029114        0.22195665216405        0.17580194116638
C            5.16876635516734       -0.88463536553821        0.14458472238076
C            4.54565154079039       -2.10893755176373        0.38379869960536
C            5.28880973786267       -3.27159657204938        0.36600897990935
C            6.65138713877386       -3.23387396572919        0.11252271803886
C            7.26487867193546       -2.01873640123973       -0.12308165743716
C            6.53291455757457       -0.84166442971935       -0.10886650704313
H            5.37884479221258        1.59644725003011       -0.99319002758772
H            4.12101105882270        2.20909612471361        0.10878804512877
H            5.69233163922009        1.69254359973735        0.76317620499118
H            3.48505514769587       -2.13745030466453        0.58296680233664
H            4.79705096233306       -4.21400527895883        0.55305121780632
H            7.22941584759425       -4.14556013514674        0.09945670632824
H            8.32591123312301       -1.97527586202746       -0.32195970603385
H            7.03849136275387        0.09284387015603       -0.29704751298191
