17
 energy: -28.293653828714 gnorm: 0.000469123066 xtb: 6.6.1 (unknown)
C           -0.57185759704535       -0.51254628266196        0.01156050077529
C            0.92020181793719       -0.77652937931246        0.01120750189119
O            1.39482033910060       -1.89278855597818        0.09711246168594
N            1.67845006517027        0.32893056835810       -0.08840961873617
H           -0.86944693302051       -0.08615979867869       -0.94412416052616
H           -1.10486767908385       -1.44548223372447        0.16766451823053
H           -0.82795531559643        0.18823862530675        0.80283226016446
H            2.69112563204093        0.25612836276345       -0.12641074755204
H            1.26385046049425        1.23881647536423       -0.17779218008935
C            4.42450641248851       -2.14891161164214        0.76195821672082
C            4.98424746759876       -1.12863850436043       -0.16770272043864
O            4.54692754422855       -0.01192664359009       -0.33040564455440
O            6.05036782353128       -1.56328904674761       -0.84201436727049
H            4.46680476475611       -1.77159613627412        1.78135753974999
H            3.36903846713325       -2.30288385508209        0.51707215273118
H            4.97707097513048       -3.07844547815113        0.68154961613268
H            6.37871575513483       -0.87951650558988       -1.44755532891248
