23
 energy: -34.617702339920 gnorm: 0.000678433106 xtb: 6.6.1 (unknown)
C           -0.66318964875361        0.30970740881850        0.55302808111730
C            0.68289905774147       -0.38201752249755        0.53959254922613
O            1.10496001775785       -1.04437246730215        1.46417625769057
N            1.38988095041783       -0.19850126849937       -0.59484994983559
H           -1.27643491896613       -0.05567311569669       -0.26789606126143
H           -1.16435571105513        0.10635063812475        1.49446484289837
H           -0.53062029435013        1.38364666954657        0.44070095872753
H            2.29728659282230       -0.63532565468236       -0.69323379103041
H            1.02068699577137        0.32839581952193       -1.36581754566075
C            5.08436146101918        0.91121681917671       -0.37612692675162
C            5.10221678405370       -0.35818375449539       -1.21570788883314
O            4.17088010360047       -1.32523138089228       -0.72592802645702
C            4.57435558856862       -2.09118978937830        0.31567041351092
O            5.67179581445750       -2.01099206352912        0.79455553124979
C            3.48068267101196       -3.01266193876854        0.75258439153518
H            4.08483370259056        1.33963272487978       -0.35045391793734
H            5.77256178812947        1.63713231967215       -0.79948954130267
H            5.39501114379212        0.68323671487693        0.64025760329135
H            6.10344696208043       -0.80047262845035       -1.20753472577995
H            4.79356420988371       -0.15947423370016       -2.24487023856652
H            2.68498055961660       -2.42081379137623        1.21301203014796
H            3.06061626397450       -3.53039867822412       -0.10584633930287
H            3.86827990583833       -3.72421082712337        1.47421229332888
