22
 energy: -31.619192575223 gnorm: 0.000439428706 xtb: 6.6.1 (unknown)
C           -1.70042333587677       -0.83602416338110        0.06739172285260
C           -0.53118518970240        0.12557071262509        0.20282388751534
O           -0.65843098223515        1.27192955493472        0.58711020942273
N            0.64857886766618       -0.41793398546676       -0.14741801864130
C            1.88296143507905        0.32445815247014       -0.10189343405187
H           -1.85834186812968       -1.07441266510415       -0.98199820564989
H           -1.49114667609273       -1.75595643512795        0.60672622945640
H           -2.59507537378658       -0.37042571037714        0.46985672342153
H            0.68991396339624       -1.38066762269981       -0.46574204815877
H            2.60625410781496       -0.17387336950628        0.54642074382524
H            2.31287847687963        0.42279072858764       -1.10138262524502
H            1.66050486387631        1.31440842715717        0.29464109988902
C            0.06545739560942       -4.93048878225231       -2.96340637840230
S           -0.56711273871157       -3.80405637243798       -1.64920685867205
O            0.62893700376041       -3.16737207421222       -1.07698757997472
C           -1.00982842881214       -5.15268441223757       -0.47177534290771
H            0.87474488811366       -5.53182630558510       -2.56445823160725
H           -0.74991157558205       -5.55285944493243       -3.31300356901393
H            0.43550704898737       -4.31326167144063       -3.77555179320634
H           -1.76974810702583       -5.77755729725420       -0.92569497221365
H           -1.40095444557418       -4.69177648657780        0.42950684564877
H           -0.12177932965313       -5.72648077717834       -0.23155840428754
