27
 energy: -34.714311528027 gnorm: 0.000352618929 xtb: 6.6.1 (unknown)
C           -1.87840616716433       -0.19623996937569        0.15368474671132
C           -0.50341047812373        0.44274559506794        0.23071296965824
O           -0.30956533488157        1.57458527533680        0.62460759271662
N            0.48757614862086       -0.36941042978001       -0.18950911844008
C            1.86454787810858        0.06830910615853       -0.19821012088940
H           -2.15789079983787       -0.33165449012397       -0.88900350503305
H           -1.86971161445912       -1.16664338491624        0.64340699738246
H           -2.60460888428667        0.45201100541278        0.63494491576083
H            0.27533165308041       -1.30405070794438       -0.50902149613550
H            2.49587382253457       -0.73795409078842       -0.56082489084097
H            1.98137874910545        0.94259875267357       -0.84275389393069
H            2.17692537649526        0.35363046085811        0.80891252429412
C           -2.37987354765925       -3.83708964621993       -1.66935995288839
C           -1.00565740205168       -3.38129237725728       -2.15362156606960
O           -0.09967852859674       -3.12241547443603       -1.09640017469133
C            0.52326957879720       -4.25210416143277       -0.51293448048139
C            1.69073892555760       -4.78676693760345       -1.33879304868276
H           -2.31992639672509       -4.79900914863886       -1.16564973444934
H           -3.04920718707342       -3.93489496863020       -2.51936246013028
H           -2.79269235904733       -3.10818299621518       -0.97673929166644
H           -0.58716141024373       -4.11949501733022       -2.84786465374968
H           -1.09798799557551       -2.42770185127845       -2.68111892675230
H           -0.20931369836825       -5.04857501078851       -0.33637871731155
H            0.88855220532226       -3.89918822156773        0.45567316028140
H            1.35001286530959       -5.17848279354594       -2.29433863814072
H            2.18339503903735       -5.58745040225752       -0.79454882291797
H            2.40878956212540       -3.99237811537593       -1.52650941360347
